eht_opf_init.m
%% MATPOWER Case Format : Version 2
version = '2';
%时段数
t=24;
% V2.4版本拉长调度周期到t=24，但仍然只有1个HLC，1辆车，所以把HLC的初始氢气量设得很大，DT的可装载氢气量也设得很大，模型才能跑通。
delta_t=1; % 这个应该不变吧
%%-----  Power Flow Data  -----%%
%% system MVA base
baseMVA = 100;

%% bus data   换成IEEE-RTS79系统的参数，24个母线节点，33个发电机，38条线路
%	bus_i	type	Pd	Qd	Gs	Bs	area	Vm	Va	baseKV	zone	Vmax	Vmin
bus = [
	1	2	108	22	0	0	1	1	0	138	1	1.05	0.95;
	2	2	97	20	0	0	1	1	0	138	1	1.05	0.95;
	3	1	180	37	0	0	1	1	0	138	1	1.05	0.95;
	4	1	74	15	0	0	1	1	0	138	1	1.05	0.95;
	5	1	71	14	0	0	1	1	0	138	1	1.05	0.95;
	6	1	136	28	0	-100	2	1	0	138	1	1.05	0.95;
	7	2	125	25	0	0	2	1	0	138	1	1.05	0.95;
	8	1	171	35	0	0	2	1	0	138	1	1.05	0.95;
	9	1	175	36	0	0	1	1	0	138	1	1.05	0.95;
	10	1	195	40	0	0	2	1	0	138	1	1.05	0.95;
	11	1	0	0	0	0	3	1	0	230	1	1.05	0.95;
	12	1	0	0	0	0	3	1	0	230	1	1.05	0.95;
	13	3	265	54	0	0	3	1	0	230	1	1.05	0.95;
	14	2	194	39	0	0	3	1	0	230	1	1.05	0.95;
	15	2	317	64	0	0	4	1	0	230	1	1.05	0.95;
	16	2	100	20	0	0	4	1	0	230	1	1.05	0.95;
	17	1	0	0	0	0	4	1	0	230	1	1.05	0.95;
	18	2	333	68	0	0	4	1	0	230	1	1.05	0.95;
	19	1	181	37	0	0	3	1	0	230	1	1.05	0.95;
	20	1	128	26	0	0	3	1	0	230	1	1.05	0.95;
	21	2	0	0	0	0	4	1	0	230	1	1.05	0.95;
	22	2	0	0	0	0	4	1	0	230	1	1.05	0.95;
	23	2	0	0	0	0	3	1	0	230	1	1.05	0.95;
	24	1	0	0	0	0	4	1	0	230	1	1.05	0.95;
];

%% generator data
%	bus	Pg	Qg	Qmax	Qmin	Vg	mBase	status	Pmax	Pmin	Pc1	Pc2	Qc1min	Qc1max	Qc2min	Qc2max	ramp_agc	ramp_10	ramp_30	ramp_q	apf	%	Unit Code
gen = [
	1	10	0	10	0	1.035	100	1	20	16	0	0	0	0	0	0	0	0	0	0	0;	%	U20
	1	10	0	10	0	1.035	100	1	20	16	0	0	0	0	0	0	0	0	0	0	0;	%	U20
	1	76	0	30	-25	1.035	100	1	76	15.2	0	0	0	0	0	0	0	0	0	0	0;	%	U76
	1	76	0	30	-25	1.035	100	1	76	15.2	0	0	0	0	0	0	0	0	0	0	0;	%	U76
	2	10	0	10	0	1.035	100	1	20	16	0	0	0	0	0	0	0	0	0	0	0;	%	U20
	2	10	0	10	0	1.035	100	1	20	16	0	0	0	0	0	0	0	0	0	0	0;	%	U20
	2	76	0	30	-25	1.035	100	1	76	15.2	0	0	0	0	0	0	0	0	0	0	0;	%	U76
	2	76	0	30	-25	1.035	100	1	76	15.2	0	0	0	0	0	0	0	0	0	0	0;	%	U76
	7	80	0	60	0	1.025	100	1	100	25	0	0	0	0	0	0	0	0	0	0	0;	%	U100
	7	80	0	60	0	1.025	100	1	100	25	0	0	0	0	0	0	0	0	0	0	0;	%	U100
	7	80	0	60	0	1.025	100	1	100	25	0	0	0	0	0	0	0	0	0	0	0;	%	U100
	13	95.1	0	80	0	1.02	100	1	197	69	0	0	0	0	0	0	0	0	0	0	0;	%	U197
	13	95.1	0	80	0	1.02	100	1	197	69	0	0	0	0	0	0	0	0	0	0	0;	%	U197
	13	95.1	0	80	0	1.02	100	1	197	69	0	0	0	0	0	0	0	0	0	0	0;	%	U197
	14	0	35.3	200	-50	0.98	100	1	0	0	0	0	0	0	0	0	0	0	0	0	0;	%	SynCond
	15	12	0	6	0	1.014	100	1	12	2.4	0	0	0	0	0	0	0	0	0	0	0;	%	U12
	15	12	0	6	0	1.014	100	1	12	2.4	0	0	0	0	0	0	0	0	0	0	0;	%	U12
	15	12	0	6	0	1.014	100	1	12	2.4	0	0	0	0	0	0	0	0	0	0	0;	%	U12
	15	12	0	6	0	1.014	100	1	12	2.4	0	0	0	0	0	0	0	0	0	0	0;	%	U12
	15	12	0	6	0	1.014	100	1	12	2.4	0	0	0	0	0	0	0	0	0	0	0;	%	U12
	15	155	0	80	-50	1.014	100	1	155	54.3	0	0	0	0	0	0	0	0	0	0	0;	%	U155
	16	155	0	80	-50	1.017	100	1	155	54.3	0	0	0	0	0	0	0	0	0	0	0;	%	U155
	18	400	0	200	-50	1.05	100	1	400	100	0	0	0	0	0	0	0	0	0	0	0;	%	U400
	21	400	0	200	-50	1.05	100	1	400	100	0	0	0	0	0	0	0	0	0	0	0;	%	U400
	22	50	0	16	-10	1.05	100	1	50	10	0	0	0	0	0	0	0	0	0	0	0;	%	U50
	22	50	0	16	-10	1.05	100	1	50	10	0	0	0	0	0	0	0	0	0	0	0;	%	U50
	22	50	0	16	-10	1.05	100	1	50	10	0	0	0	0	0	0	0	0	0	0	0;	%	U50
	22	50	0	16	-10	1.05	100	1	50	10	0	0	0	0	0	0	0	0	0	0	0;	%	U50
	22	50	0	16	-10	1.05	100	1	50	10	0	0	0	0	0	0	0	0	0	0	0;	%	U50
	22	50	0	16	-10	1.05	100	1	50	10	0	0	0	0	0	0	0	0	0	0	0;	%	U50
	23	155	0	80	-50	1.05	100	1	155	54.3	0	0	0	0	0	0	0	0	0	0	0;	%	U155
	23	155	0	80	-50	1.05	100	1	155	54.3	0	0	0	0	0	0	0	0	0	0	0;	%	U155
	23	350	0	150	-25	1.05	100	1	350	140	0	0	0	0	0	0	0	0	0	0	0;	%	U350
];

%% branch data
%	fbus	tbus	r	x	b	rateA	rateB	rateC	ratio	angle	status	angmin	angmax
branch = [
	1	2	0.0026	0.0139	0.4611	175	250	200	0	0	1	-360	360;
	1	3	0.0546	0.2112	0.0572	175	208	220	0	0	1	-360	360;
	1	5	0.0218	0.0845	0.0229	175	208	220	0	0	1	-360	360;
	2	4	0.0328	0.1267	0.0343	175	208	220	0	0	1	-360	360;
	2	6	0.0497	0.192	0.052	175	208	220	0	0	1	-360	360;
	3	9	0.0308	0.119	0.0322	175	208	220	0	0	1	-360	360;
	3	24	0.0023	0.0839	0	400	510	600	1.03	0	1	-360	360;
	4	9	0.0268	0.1037	0.0281	175	208	220	0	0	1	-360	360;
	5	10	0.0228	0.0883	0.0239	175	208	220	0	0	1	-360	360;
	6	10	0.0139	0.0605	2.459	175	193	200	0	0	1	-360	360;
	7	8	0.0159	0.0614	0.0166	175	208	220	0	0	1	-360	360;
	8	9	0.0427	0.1651	0.0447	175	208	220	0	0	1	-360	360;
	8	10	0.0427	0.1651	0.0447	175	208	220	0	0	1	-360	360;
	9	11	0.0023	0.0839	0	400	510	600	1.03	0	1	-360	360;
	9	12	0.0023	0.0839	0	400	510	600	1.03	0	1	-360	360;
	10	11	0.0023	0.0839	0	400	510	600	1.02	0	1	-360	360;
	10	12	0.0023	0.0839	0	400	510	600	1.02	0	1	-360	360;
	11	13	0.0061	0.0476	0.0999	500	600	625	0	0	1	-360	360;
	11	14	0.0054	0.0418	0.0879	500	625	625	0	0	1	-360	360;
	12	13	0.0061	0.0476	0.0999	500	625	625	0	0	1	-360	360;
	12	23	0.0124	0.0966	0.203	500	625	625	0	0	1	-360	360;
	13	23	0.0111	0.0865	0.1818	500	625	625	0	0	1	-360	360;
	14	16	0.005	0.0389	0.0818	500	625	625	0	0	1	-360	360;
	15	16	0.0022	0.0173	0.0364	500	600	625	0	0	1	-360	360;
	15	21	0.0063	0.049	0.103	500	600	625	0	0	1	-360	360;
	15	21	0.0063	0.049	0.103	500	600	625	0	0	1	-360	360;
	15	24	0.0067	0.0519	0.1091	500	600	625	0	0	1	-360	360;
	16	17	0.0033	0.0259	0.0545	500	600	625	0	0	1	-360	360;
	16	19	0.003	0.0231	0.0485	500	600	625	0	0	1	-360	360;
	17	18	0.0018	0.0144	0.0303	500	600	625	0	0	1	-360	360;
	17	22	0.0135	0.1053	0.2212	500	600	625	0	0	1	-360	360;
	18	21	0.0033	0.0259	0.0545	500	600	625	0	0	1	-360	360;
	18	21	0.0033	0.0259	0.0545	500	600	625	0	0	1	-360	360;
	19	20	0.0051	0.0396	0.0833	500	600	625	0	0	1	-360	360;
	19	20	0.0051	0.0396	0.0833	500	600	625	0	0	1	-360	360;
	20	23	0.0028	0.0216	0.0455	500	600	625	0	0	1	-360	360;
	20	23	0.0028	0.0216	0.0455	500	600	625	0	0	1	-360	360;
	21	22	0.0087	0.0678	0.1424	500	600	625	0	0	1	-360	360;
];
%%-----  OPF Data  -----%%
%% generator cost data
%	1	startup	shutdown	n	x1	y1	...	xn	yn
%	2	startup	shutdown	n	c(n-1)	...	c0
gencost = [								%	bus	Pmin	Pmax	Qmin	Qmax	Unit Code
	2	1500	0	3	0	130	400.6849;	%	1	16	20	0	10	U20
	2	1500	0	3	0	130	400.6849;	%	1	16	20	0	10	U20
	2	1500	0	3	0.014142	16.0811	212.3076;	%	1	15.2	76	-25	30	U76
	2	1500	0	3	0.014142	16.0811	212.3076;	%	1	15.2	76	-25	30	U76
	2	1500	0	3	0	130	400.6849;	%	2	16	20	0	10	U20
	2	1500	0	3	0	130	400.6849;	%	2	16	20	0	10	U20
	2	1500	0	3	0.014142	16.0811	212.3076;	%	2	15.2	76	-25	30	U76
	2	1500	0	3	0.014142	16.0811	212.3076;	%	2	15.2	76	-25	30	U76
	2	1500	0	3	0.052672	43.6615	781.521;	%	7	25	100	0	60	U100
	2	1500	0	3	0.052672	43.6615	781.521;	%	7	25	100	0	60	U100
	2	1500	0	3	0.052672	43.6615	781.521;	%	7	25	100	0	60	U100
	2	1500	0	3	0.00717	48.5804	832.7575;	%	13	69	197	0	80	U197
	2	1500	0	3	0.00717	48.5804	832.7575;	%	13	69	197	0	80	U197
	2	1500	0	3	0.00717	48.5804	832.7575;	%	13	69	197	0	80	U197
	2	1500	0	3	0	0	0;	%	14					SynCond
	2	1500	0	3	0.328412	56.564	86.3852;	%	15	2.4	12	0	6	U12
	2	1500	0	3	0.328412	56.564	86.3852;	%	15	2.4	12	0	6	U12
	2	1500	0	3	0.328412	56.564	86.3852;	%	15	2.4	12	0	6	U12
	2	1500	0	3	0.328412	56.564	86.3852;	%	15	2.4	12	0	6	U12
	2	1500	0	3	0.328412	56.564	86.3852;	%	15	2.4	12	0	6	U12
	2	1500	0	3	0.008342	12.3883	382.2391;	%	15	54.3	155	-50	80	U155
	2	1500	0	3	0.008342	12.3883	382.2391;	%	16	54.3	155	-50	80	U155
	2	1500	0	3	0.000213	4.4231	395.3749;	%	18	100	400	-50	200	U400
	2	1500	0	3	0.000213	4.4231	395.3749;	%	21	100	400	-50	200	U400
	2	1500	0	3	0	0.001	0.001;	%	22	10	50	-10	16	U50
	2	1500	0	3	0	0.001	0.001;	%	22	10	50	-10	16	U50
	2	1500	0	3	0	0.001	0.001;	%	22	10	50	-10	16	U50
	2	1500	0	3	0	0.001	0.001;	%	22	10	50	-10	16	U50
	2	1500	0	3	0	0.001	0.001;	%	22	10	50	-10	16	U50
	2	1500	0	3	0	0.001	0.001;	%	22	10	50	-10	16	U50
	2	1500	0	3	0.008342	12.3883	382.2391;	%	23	54.3	155	-50	80	U155
	2	1500	0	3	0.008342	12.3883	382.2391;	%	23	54.3	155	-50	80	U155
	2	1500	0	3	0.004895	11.8495	665.1094;	%	23	140	350	-25	150	U350
];

% start
% version = '2';
% baseMVA = 100;
load = [
1680
1596
1540
1512
1540
1624
1792
1960
2016
2100
2156
2240
2184
2128
2016
2184
2352
2324
2156
2044
1876
1680
1568
1540
];	% 24-hour load profile for RTS-79 (as a percentage of peak, then scaled)													
				% 改时段t时，同步改load的行数

%% 发电机组线性化出力，分成K段
K=5;
[A,B,C]=linearization_common(gencost(:,5),gencost(:,6),gencost(:,7),gen(:,9),gen(:,10),K);
% 参数计算
% m=size(gen,1);
m=size(gen,1);
p=size(bus,1);
k=size(branch,1);
PGmax=gen(:,9);
PGmin=gen(:,10);
% PLmax = repmat(200,k,1);
PLmax = branch(:,6);
% PLmax = 1.2*PLmax;  % 调大
xl=branch(:,4);
RD=repmat(20, m, 1); % 假设所有机组的向下爬坡率为 20 MW/h
RU=repmat(20, m, 1); % 假设所有机组的向上爬坡率为 20 MW/h
SRD=40;% MW
SRU=40;% MW
% 求节点功率平衡约束中PL对应的系数矩阵KL
ff=branch(:,1);
tt=branch(:,2);
KL=zeros(p,k);
for i=1:k
    KL(ff(i),i)=1;
    KL(tt(i),i)=-1;
end
% 求节点功率平衡约束中PG对应的系数矩阵KG
bus_gen=gen(:,1);
KG=zeros(p,m);
for i=1:m
    KG(bus_gen(i),i)=1;
end
% 求节点功率平衡约束中PD对应的系数矩阵KD
PD=bus(:,3);
KD=zeros(p,p);
for i=1:p
   if PD(i)~=0
       KD(bus(i,1),bus(i,1))=1;
   end
end
% 直流潮流方程约束中相角相减
Ktheta=KL.';
% 负荷在24小时的变化情况
bus_day=PD/sum(PD,'all')*load.';
bus_day=1*bus_day;


%% 风电数据，根据[41]文献进行估算并修改
Nw=2;% 风电厂数量
KW=zeros(24,2); % 初始化连接矩阵
KW(16,1) = 1; % 风电场1连接到节点16
KW(22,2) = 1; % 风电场2连接到节点22
% wind_bus表示风力发电机连接的节点
wind_bus = [];  % 初始化 wind_bus 为一个空数组
for i = 1:size(KW, 1)  % 遍历每一行
    if any(KW(i, :) == 1)  % 如果该行有1
        wind_bus = [wind_bus, i];  % 将行号加入 wind_bus
    end
end
% PW (来自 Case Study Input of CPSTN.pdf 图1 Scenario 1的估算值)
PW = [
    850, 780, 950, 700, 850, 600, 800, 700, 750, 800, 880, 750, 300, 400, 350, 300, 450, 400, 450, 250, 450, 650, 700, 600;
    650, 550, 800, 500, 100, 50, 50, 200, 300, 350, 300, 250, 500, 300, 350, 220, 400, 450, 350, 400, 500, 750, 650, 550
];
% 采用确定性单预测场景，不再需要误差范围；两座风场容量分别为1000 MW和500 MW
PW(1,:) = min(PW(1,:),1000);
PW(2,:) = PW(2,:)*500/max(PW(2,:));

%% 制氢站HGS参数
eta_p2h=16.67;  %(电解水制氢效率，单位：kg/MWh)
eta_h2c=0.0008; %(压缩氢气耗电效率，单位：MWh/kg)
% 20260711增加，并对应的在约束中做限制
Qgen_max = 2000;       % HGS每小时最大制氢量 kg
QDT_hour_max = 3000;   % HGS每小时向全部车辆装氢总量 kg

PHmin=0;
PHmax=Qgen_max/(eta_p2h*delta_t) + Qgen_max*eta_h2c/delta_t;  % 原来直接写800，过大

KH=zeros(24,1); % 初始化连接矩阵
KH(16,1) = 1; % HGS 1 连接到节点16
Nh=1; % HGS制氢站数量

% HGS 储氢罐参数 (来自 Case Study Input Table I)
Qmin=100;     % 储氢罐中的氢气量下限（目前只有制氢站有储氢罐）
Qmax=1000;     % 储氢罐中的氢气量上限 (KG)
QN=1100;       % 储氢罐的总容量，比Qmax稍大
SOC_init=0.4;    % 认为调度周期最后SOC要回归初始水平(但是这个约束满足不了，需要加松弛变量s1和s2，另外SOC_init取不同值时结果会有区别，比如0.5)
Q_init=SOC_init*QN;
Qin_max=1000;     % 储氢罐进气量的上限(每小时)
Qout_max=1000;    % 储氢罐出气量的上限(每小时)



% 假设HGS有6台运氢车DT(假设只有1个HGS)
N_dt=6;
% 假设氢网中HGS编号为0，剩下的全是HLC
Nc=4;   %HLC站点数量
N_HN=Nh+Nc;  % hydrogen network氢网总节点数=5
% % MTZ辅助顺序编号矩阵--如果氢网HLC节点不与电网节点关联，那直接按顺序编号就好，此时a是一个常量（但是后面gpt把它弄成一个变量为什么）
% a0=0:N_HN-1;
% a=repmat(a0,N_dt,1);
% 约定：氢网节点 1 为 HGS，2..N_HN 为 HLC(1..Nc)
id_hgs = 1;
id_hlc = 2:N_HN;   % 对应 HLC 索引 m = n-1

% 定义路段距离参数，是方阵。行为出发点，列为到达点。(来自 Case Study Input Fig. 2), inf 表示不直连
x= [ 0,  50,  50, inf,  60;
    50,   0,  25, inf, inf;
    50,  25,   0,  65,  70;
   inf, inf,  65,   0,  30;
    60, inf,  70,  30,   0];
% x= [ 0,  50,  50, 99999,  60;
%     50,   0,  25, 99999, 99999;
%     50,  25,   0,  65,  70;
%    99999, 99999,  65,   0,  30;
%     60, 99999,  70,  30,   0];
% 建立邻接标识矩阵Adj，1表示相连-可达，0表示不相连
Adj = double(~isinf(x));
r=0.013; % 单位路途花费时间(小时/公里 (h/km))
T_tra=r.*x;  % 得到每段路途的行驶时间
% 对于T_tra的每一个元素，其对应路段与节点顺序编号的对应为：为0-1，1-2，...，n-0


% DT 参数 (来自 Case Study Input Table I)
% 最大车载氢容量（也是HGS装载量的上限）
Q_dt_cap = 1000;  % 要不设高一点，我发现每辆车出发时都装满了
% HGS装载量下限
Q_dt_min = 0;


M_time=30;          % 时间约束
M_h2=Q_dt_cap;      % 氢量约束，若单车容量1000，则为1000


% HLC 参数 (来自 Case Study Input Table I)
% HLC卸货上下限
Q_ser_min = 0;
Q_ser_max = Q_dt_cap;
% HLC 仓储参数
Q_hlc_cap = [1500; 2000; 1500; 1500];  % HLC站的容量上限（KG）
% Q_hlc_init = [750; 1000; 750; 750]; % 假设初始容量为50%  --不能为0，因为第一个时段也有负荷
Q_hlc_init = 0.7 * Q_hlc_cap;
Qin_hlc_max = Q_hlc_cap;
HLC_load = zeros(Nc,t); % HLC站的燃料电池车负荷，若不考虑就保持0
% HLC 氢负荷 (来自 Case Study Input Fig. 3 的估算值)
HLC_load = [
    80, 50, 80, 200, 100, 50, 280, 220, 280, 380, 400, 320, 400, 450, 500, 400, 700, 650, 50, 100, 150, 200, 80, 50;
    100, 80, 20, 150, 220, 100, 320, 420, 350, 480, 480, 450, 520, 600, 820, 750, 800, 200, 100, 220, 200, 280, 100, 80;
    220, 100, 50, 100, 150, 50, 300, 350, 250, 350, 450, 400, 580, 500, 550, 600, 500, 100, 280, 150, 100, 50, 50, 250;
    50, 50, 20, 50, 10, 20, 150, 280, 200, 280, 320, 380, 350, 420, 480, 520, 550, 500, 20, 50, 80, 100, 150, 100
];
target_h2_load = 5000;
HLC_load = HLC_load*target_h2_load/sum(HLC_load(:));  % 6辆车且每车一天只跑一趟，理论运输上限为6000 kg；将负荷设为5000 kg可留出路线和时序余量。
% 该负荷是我的缩小算例，不是论文原来的26311 kg。论文原来可能40辆车，我只设6辆。


% 添加时间窗参数（车子从hgs出发和到达hlc站的时间范围）
tw_min = zeros(N_dt, N_HN);  % 时间窗下限
tw_max = t*ones(N_dt, N_HN);  % 时间窗上限
% 规定所有车子在指定时间窗从hgs出发,如[0,1]
% tw_max(:,id_hgs)=1.5;
% % 可单独为第1辆车第1个HLC设置时间窗[1，3]，上下限可以是小数
% tw_min(1, id_hlc(1)) = 1; 
% tw_max(1, id_hlc(1)) = 3.5;

